Version 4
SHEET 1 2508 1464
WIRE 1952 992 1936 992
WIRE 2160 992 2032 992
WIRE 1936 1088 1936 992
WIRE 2032 1088 1936 1088
WIRE 2160 1088 2112 1088
WIRE 1824 1184 1728 1184
WIRE 1936 1184 1936 1088
WIRE 1936 1184 1904 1184
WIRE 2160 1184 1936 1184
WIRE 1728 1200 1728 1184
WIRE 1728 1296 1728 1280
FLAG 1728 1184 IN
FLAG 1728 1296 0
SYMBOL RES 2048 976 R90
WINDOW 0 0 56 VBottom 2
WINDOW 3 32 56 VTop 2
SYMATTR InstName R1
SYMATTR Value 10K
SYMBOL res 2128 1072 R90
WINDOW 0 0 56 VBottom 2
WINDOW 3 32 56 VTop 2
SYMATTR InstName R2
SYMATTR Value 100K
SYMBOL res 1920 1168 R90
WINDOW 0 0 56 VBottom 2
WINDOW 3 32 56 VTop 2
SYMATTR InstName R3
SYMATTR Value 100K
SYMBOL VOLTAGE 1728 1184 R0
SYMATTR InstName V1
SYMATTR Value AC 1
SYMBOL MISC\\TOWTOM2 2192 1024 R0
SYMATTR InstName U1
TEXT 1912 1304 Left 2 !.include TowTom2.sub
TEXT 1912 1344 Left 2 !.ac oct 100 1k 10Meg
TEXT 2000 1368 Top 1 ;This example schematic is supplied for informational/educational purposes only.
