Version 4
SHEET 1 3040 2472
WIRE 1904 1840 1888 1840
WIRE 2016 1840 1968 1840
WIRE 2048 1840 2016 1840
WIRE 2128 1840 2112 1840
WIRE 2016 1872 2016 1840
WIRE 1888 1952 1888 1840
WIRE 1968 1952 1888 1952
WIRE 2128 1952 2128 1840
WIRE 2128 1952 2032 1952
WIRE 2128 1968 2128 1952
WIRE 2544 2016 2496 2016
WIRE 2640 2016 2608 2016
WIRE 2128 2048 2128 2032
WIRE 2336 2048 2128 2048
WIRE 2448 2048 2384 2048
WIRE 2128 2064 2128 2048
WIRE 2336 2064 2336 2048
WIRE 2384 2064 2384 2048
WIRE 2496 2064 2496 2016
WIRE 2640 2112 2640 2016
WIRE 2704 2112 2640 2112
WIRE 2816 2112 2704 2112
WIRE 1888 2128 1888 1952
WIRE 2000 2128 1888 2128
WIRE 2080 2128 2000 2128
WIRE 2704 2128 2704 2112
WIRE 2816 2128 2816 2112
WIRE 1888 2144 1888 2128
WIRE 2000 2144 2000 2128
WIRE 2336 2160 2336 2144
WIRE 2336 2160 2272 2160
WIRE 2128 2176 2128 2160
WIRE 2272 2176 2272 2160
WIRE 2448 2176 2448 2048
WIRE 2496 2176 2496 2144
WIRE 2496 2176 2448 2176
WIRE 2448 2192 2448 2176
WIRE 2000 2224 2000 2208
WIRE 2384 2224 2384 2144
WIRE 2544 2224 2384 2224
WIRE 2640 2224 2640 2112
WIRE 2640 2224 2608 2224
WIRE 2704 2224 2704 2192
WIRE 2816 2224 2816 2208
WIRE 1888 2240 1888 2224
WIRE 2128 2272 2128 2256
WIRE 2272 2272 2272 2256
FLAG 2016 1872 0
FLAG 1888 2240 0
FLAG 2128 2272 0
FLAG 2272 2272 0
FLAG 2000 2224 0
FLAG 2448 2192 0
FLAG 2704 2224 0
FLAG 2816 2224 0
FLAG 2816 2112 OUT
SYMBOL MISC\\XTAL 2032 1936 R90
WINDOW 0 0 32 VBottom 2
WINDOW 3 32 32 VTop 2
SYMATTR InstName Y1
SYMATTR Value 0.25p
SYMATTR SpiceLine Rser=0.1 Lser=0.001 Cpar=5e-011
SYMBOL NJF 2080 2064 R0
SYMATTR InstName J1
SYMATTR Value 2N5484
SYMBOL cap 2112 1968 R0
SYMATTR InstName C3
SYMATTR Value 200p
SYMBOL cap 2112 1824 R90
WINDOW 0 0 32 VBottom 2
WINDOW 3 32 32 VTop 2
SYMATTR InstName C2
SYMATTR Value 100p
SYMBOL cap 1968 1824 R90
WINDOW 0 0 32 VBottom 2
WINDOW 3 32 32 VTop 2
SYMATTR InstName C1
SYMATTR Value 25p
SYMBOL RES 1872 2128 R0
SYMATTR InstName R1
SYMATTR Value 100K
SYMBOL VOLTAGE 2272 2160 R0
SYMATTR InstName V1
SYMATTR Value 10.
SYMBOL diode 1984 2208 M180
WINDOW 0 24 64 Left 2
WINDOW 3 24 0 Left 2
SYMATTR InstName D1
SYMATTR Value 1N4148
SYMBOL ind2 2400 2048 M0
WINDOW 0 -2 37 Right 2
WINDOW 3 -4 72 Right 2
SYMATTR InstName L2
SYMATTR Value 6µ
SYMBOL ind2 2512 2048 M0
WINDOW 0 -1 36 Right 2
WINDOW 3 -2 74 Right 2
SYMATTR InstName L3
SYMATTR Value 6µ
SYMBOL ind2 2320 2048 R0
WINDOW 0 -4 35 Right 2
WINDOW 3 -4 73 Right 2
SYMATTR InstName L1
SYMATTR Value 12µ
SYMBOL diode 2544 2032 R270
WINDOW 0 32 32 VTop 2
WINDOW 3 0 32 VBottom 2
SYMATTR InstName D3
SYMATTR Value 1N4148
SYMBOL diode 2544 2240 R270
WINDOW 0 32 32 VTop 2
WINDOW 3 0 32 VBottom 2
SYMATTR InstName D4
SYMATTR Value 1N4148
SYMBOL cap 2688 2128 R0
SYMATTR InstName C5
SYMATTR Value 10p
SYMBOL ind 2800 2112 R0
SYMATTR InstName L4
SYMATTR Value 6.3µ
SYMBOL RES 2112 2160 R0
SYMATTR InstName R2
SYMATTR Value 100
TEXT 1856 2328 Left 2 !.tran 1.5m startup
TEXT 2360 2032 Center 2 !K1 L1 L2 L3 1.
TEXT 2328 2408 Top 1 ;This example schematic is supplied for informational/educational purposes only.
