Version 4
SHEET 1 2028 1044
WIRE -48 -352 -720 -352
WIRE 80 -352 32 -352
WIRE 224 -352 144 -352
WIRE 384 -352 288 -352
WIRE 576 -352 384 -352
WIRE 784 -352 672 -352
WIRE 832 -352 784 -352
WIRE 1008 -352 832 -352
WIRE 1120 -352 1008 -352
WIRE 1168 -352 1120 -352
WIRE 1168 -336 1168 -352
WIRE 384 -320 384 -352
WIRE 832 -320 832 -352
WIRE -720 -304 -720 -352
WIRE 1168 -240 1168 -256
WIRE 656 -224 656 -304
WIRE 688 -224 656 -224
WIRE 832 -224 832 -256
WIRE -720 -208 -720 -224
WIRE 688 -208 688 -224
WIRE 384 -192 384 -240
WIRE 416 -192 384 -192
WIRE 416 -176 416 -192
WIRE -32 -112 -64 -112
WIRE 384 -112 384 -192
WIRE 384 -112 352 -112
WIRE 688 -112 688 -128
WIRE 1008 -112 1008 -352
WIRE 416 -96 416 -112
WIRE 656 -48 656 -224
WIRE 656 -48 352 -48
WIRE 688 -16 688 -48
WIRE 1120 -16 1120 -352
WIRE -144 16 -176 16
WIRE -32 16 -64 16
WIRE 784 16 784 -352
WIRE 784 16 352 16
WIRE 1008 80 1008 -32
WIRE 1008 80 352 80
WIRE -32 144 -64 144
WIRE 1120 144 1120 64
WIRE 1120 144 352 144
FLAG 416 -96 0
FLAG 688 -16 0
FLAG 832 -224 0
FLAG -64 -112 0
FLAG -720 -352 IN
FLAG 1168 -352 OUT
FLAG 1168 -240 0
FLAG -176 16 0
FLAG -720 -208 0
FLAG -64 144 0
SYMBOL nmos 576 -304 R270
WINDOW 0 52 48 VTop 2
WINDOW 3 -15 72 VLeft 2
SYMATTR InstName Q1
SYMATTR Value SUD40N10-25
SYMBOL cap 672 -112 R0
SYMATTR InstName C1
SYMATTR Value 47n
SYMBOL res 672 -224 R0
SYMATTR InstName R1
SYMATTR Value 3.32K
SYMBOL polcap 816 -320 R0
WINDOW 3 42 36 Left 2
WINDOW 39 21 62 Left 2
SYMATTR Value 10µ
SYMATTR SpiceLine Rser=1.8
SYMATTR InstName C2
SYMATTR Description Capacitor
SYMATTR Type cap
SYMBOL cap 400 -176 R0
SYMATTR InstName C3
SYMATTR Value 0.1µ
SYMBOL res 368 -336 R0
SYMATTR InstName R2
SYMATTR Value 8.25
SYMBOL res -64 -368 M90
WINDOW 0 0 56 VBottom 2
WINDOW 3 32 56 VTop 2
SYMATTR InstName R3
SYMATTR Value 12
SYMBOL res 992 -128 R0
SYMATTR InstName R4
SYMATTR Value 40.2K
SYMBOL res 1104 -32 R0
SYMATTR InstName R5
SYMATTR Value 40.2K
SYMBOL diode 80 -336 R270
WINDOW 0 32 32 VTop 2
WINDOW 3 0 32 VBottom 2
SYMATTR InstName D1
SYMATTR Value MURS120
SYMBOL diode 224 -336 R270
WINDOW 0 32 32 VTop 2
WINDOW 3 0 32 VBottom 2
SYMATTR InstName D2
SYMATTR Value MURS120
SYMBOL res -48 0 R90
WINDOW 0 -4 55 VBottom 2
WINDOW 3 30 53 VTop 2
SYMATTR InstName R6
SYMATTR Value 34.8
SYMBOL LT4275A 160 16 R0
SYMATTR InstName U1
SYMBOL voltage -720 -320 R0
WINDOW 3 37 54 Left 2
WINDOW 123 25 90 Left 2
SYMATTR Value PWL(0 0 10m 6 250m 6 260m 5 500m 5 505m 8 555m 8 560m 4 610m 4
SYMATTR Value2 611m 17 621m 17 622m 8 627m 8 628m 17 638m 17 639m 8 659m 8 660m 57)
SYMATTR InstName V1
SYMBOL res 1152 -352 R0
SYMATTR InstName Rload
SYMATTR Value 4K
TEXT 856 168 Left 2 !.tran 0.9
TEXT 176 -400 Bottom 2 ;Diode Bridge
