Version 4
SHEET 1 880 680
SYMBOL voltage 32 272 R0
SYMATTR InstName V1
SYMBOL res 192 48 R0
SYMATTR InstName R1
SYMBOL pjf 384 224 R0
SYMATTR InstName J1
